input/IEEE57busPsse30.raw
 0, 100.0/RAWD VER 30 EXPORT BY PSAT
 IEEE 57 Bus Test Case
 IEEE 57 Bus Test Case
       1,'Kanawha     ', 138.00,3,          0.000,          0.000,   1,   1,1.04000,   0.0000,   1,/* [                                ] */
       2,'Turner      ', 138.00,2,          0.000,          0.000,   1,   1,1.01000,  -1.1882,   1,/* [                                ] */
       3,'Logan       ', 138.00,2,          0.000,          0.000,   1,   1,0.98500,  -5.9881,   1,/* [                                ] */
       4,'Sprigg      ', 138.00,1,          0.000,          0.000,   1,   1,0.98078,  -7.3374,   1,/* [                                ] */
       5,'Bus 5       ', 138.00,1,          0.000,          0.000,   1,   1,0.97650,  -8.5464,   1,/* [                                ] */
       6,'Beaver C    ', 138.00,2,          0.000,          0.000,   1,   1,0.98000,  -8.6741,   1,/* [                                ] */
       7,'Bus 7       ', 138.00,1,          0.000,          0.000,   1,   1,0.98420,  -7.6014,   1,/* [                                ] */
       8,'Clinch R    ', 138.00,2,          0.000,          0.000,   1,   1,1.00500,  -4.4779,   1,/* [                                ] */
       9,'Saltvill    ', 138.00,2,          0.000,          0.000,   1,   1,0.98000,  -9.5847,   1,/* [                                ] */
      10,'Bus 10      ', 138.00,1,          0.000,          0.000,   1,   1,0.98624, -11.4497,   1,/* [                                ] */
      11,'Tazewell    ', 138.00,1,          0.000,          0.000,   1,   1,0.97396, -10.1932,   1,/* [                                ] */
      12,'Glen Lyn    ', 138.00,2,          0.000,          0.000,   1,   1,1.01500, -10.4712,   1,/* [                                ] */
      13,'Bus 13      ', 138.00,1,          0.000,          0.000,   1,   1,0.97889,  -9.8035,   1,/* [                                ] */
      14,'Bus 14      ', 138.00,1,          0.000,          0.000,   1,   1,0.97018,  -9.3503,   1,/* [                                ] */
      15,'Bus 15      ', 138.00,1,          0.000,          0.000,   1,   1,0.98803,  -7.1902,   1,/* [                                ] */
      16,'Bus 16      ', 138.00,1,          0.000,          0.000,   1,   1,1.01337,  -8.8589,   1,/* [                                ] */
      17,'Bus 17      ', 138.00,1,          0.000,          0.000,   1,   1,1.01745,  -5.3959,   1,/* [                                ] */
      18,'Sprigg      ', 138.00,1,          0.000,         10.000,   1,   1,1.00066, -11.7296,   1,/* [                                ] */
      19,'Bus 19      ', 138.00,1,          0.000,          0.000,   1,   1,0.97016, -13.2265,   1,/* [                                ] */
      20,'Bus 20      ', 138.00,1,          0.000,          0.000,   1,   1,0.96379, -13.4443,   1,/* [                                ] */
      21,'Bus 21      ', 138.00,1,          0.000,          0.000,   1,   1,1.00850, -12.9290,   1,/* [                                ] */
      22,'Bus 22      ', 138.00,1,          0.000,          0.000,   1,   1,1.00974, -12.8743,   1,/* [                                ] */
      23,'Bus 23      ', 138.00,1,          0.000,          0.000,   1,   1,1.00833, -12.9396,   1,/* [                                ] */
      24,'Bus 24      ', 138.00,1,          0.000,          0.000,   1,   1,0.99923, -13.2921,   1,/* [                                ] */
      25,'Bus 25      ', 138.00,1,          0.000,          5.900,   1,   1,0.98252, -18.1732,   1,/* [                                ] */
      26,'Bus 26      ', 138.00,1,          0.000,          0.000,   1,   1,0.95882, -12.9813,   1,/* [                                ] */
      27,'Bus 27      ', 138.00,1,          0.000,          0.000,   1,   1,0.98154, -11.5136,   1,/* [                                ] */
      28,'Bus 28      ', 138.00,1,          0.000,          0.000,   1,   1,0.99668, -10.4816,   1,/* [                                ] */
      29,'Bus 29      ', 138.00,1,          0.000,          0.000,   1,   1,1.01022,  -9.7718,   1,/* [                                ] */
      30,'Bus 30      ', 138.00,1,          0.000,          0.000,   1,   1,0.96266, -18.7196,   1,/* [                                ] */
      31,'Bus 31      ', 138.00,1,          0.000,          0.000,   1,   1,0.93593, -19.3838,   1,/* [                                ] */
      32,'Bus 32      ', 138.00,1,          0.000,          0.000,   1,   1,0.94987, -18.5123,   1,/* [                                ] */
      33,'Bus 33      ', 138.00,1,          0.000,          0.000,   1,   1,0.94758, -18.5520,   1,/* [                                ] */
      34,'Bus 34      ', 138.00,1,          0.000,          0.000,   1,   1,0.95920, -14.1490,   1,/* [                                ] */
      35,'Bus 35      ', 138.00,1,          0.000,          0.000,   1,   1,0.96621, -13.9062,   1,/* [                                ] */
      36,'Bus 36      ', 138.00,1,          0.000,          0.000,   1,   1,0.97583, -13.6348,   1,/* [                                ] */
      37,'Bus 37      ', 138.00,1,          0.000,          0.000,   1,   1,0.98489, -13.4459,   1,/* [                                ] */
      38,'Bus 38      ', 138.00,1,          0.000,          0.000,   1,   1,1.01281, -12.7346,   1,/* [                                ] */
      39,'Bus 39      ', 138.00,1,          0.000,          0.000,   1,   1,0.98282, -13.4910,   1,/* [                                ] */
      40,'Bus 40      ', 138.00,1,          0.000,          0.000,   1,   1,0.97281, -13.6582,   1,/* [                                ] */
      41,'Tazewell    ', 138.00,1,          0.000,          0.000,   1,   1,0.99622, -14.0767,   1,/* [                                ] */
      42,'Bus 42      ', 138.00,1,          0.000,          0.000,   1,   1,0.96653, -15.5328,   1,/* [                                ] */
      43,'Tazewell    ', 138.00,1,          0.000,          0.000,   1,   1,1.00956, -11.3544,   1,/* [                                ] */
      44,'Bus 44      ', 138.00,1,          0.000,          0.000,   1,   1,1.01680, -11.8565,   1,/* [                                ] */
      45,'Bus 45      ', 138.00,1,          0.000,          0.000,   1,   1,1.03600,  -9.2701,   1,/* [                                ] */
      46,'Bus 46      ', 138.00,1,          0.000,          0.000,   1,   1,1.05980, -11.1161,   1,/* [                                ] */
      47,'Bus 47      ', 138.00,1,          0.000,          0.000,   1,   1,1.03325, -12.5116,   1,/* [                                ] */
      48,'Bus 48      ', 138.00,1,          0.000,          0.000,   1,   1,1.02735, -12.6107,   1,/* [                                ] */
      49,'Bus 49      ', 138.00,1,          0.000,          0.000,   1,   1,1.03625, -12.9361,   1,/* [                                ] */
      50,'Bus 50      ', 138.00,1,          0.000,          0.000,   1,   1,1.02334, -13.4127,   1,/* [                                ] */
      51,'Bus 51      ', 138.00,1,          0.000,          0.000,   1,   1,1.05226, -12.5334,   1,/* [                                ] */
      52,'Bus 52      ', 138.00,1,          0.000,          0.000,   1,   1,0.98037, -11.4976,   1,/* [                                ] */
      53,'Bus 53      ', 138.00,1,          0.000,          6.300,   1,   1,0.97095, -12.2526,   1,/* [                                ] */
      54,'Bus 54      ', 138.00,1,          0.000,          0.000,   1,   1,0.99632, -11.7097,   1,/* [                                ] */
      55,'Saltvill    ', 138.00,1,          0.000,          0.000,   1,   1,1.03079, -10.8011,   1,/* [                                ] */
      56,'Bus 56      ', 138.00,1,          0.000,          0.000,   1,   1,0.96837, -16.0651,   1,/* [                                ] */
      57,'Bus 57      ', 138.00,1,          0.000,          0.000,   1,   1,0.96483, -16.5837,   1,/* [                                ] */
0 / END OF BUS DATA, BEGIN LOAD DATA
     1,'1 ',1,   1,   1,    55.000,    17.000,     0.000,     0.000,     0.000,     0.000,   1,/* [                                ] */
     2,'1 ',1,   1,   1,     3.000,    88.000,     0.000,     0.000,     0.000,     0.000,   1,/* [                                ] */
     3,'1 ',1,   1,   1,    41.000,    21.000,     0.000,     0.000,     0.000,     0.000,   1,/* [                                ] */
     5,'1 ',1,   1,   1,    13.000,     4.000,     0.000,     0.000,     0.000,     0.000,   1,/* [                                ] */
     6,'1 ',1,   1,   1,    75.000,     2.000,     0.000,     0.000,     0.000,     0.000,   1,/* [                                ] */
     8,'1 ',1,   1,   1,   150.000,    22.000,     0.000,     0.000,     0.000,     0.000,   1,/* [                                ] */
     9,'1 ',1,   1,   1,   121.000,    26.000,     0.000,     0.000,     0.000,     0.000,   1,/* [                                ] */
    10,'1 ',1,   1,   1,     5.000,     2.000,     0.000,     0.000,     0.000,     0.000,   1,/* [                                ] */
    12,'1 ',1,   1,   1,   377.000,    24.000,     0.000,     0.000,     0.000,     0.000,   1,/* [                                ] */
    13,'1 ',1,   1,   1,    18.000,     2.300,     0.000,     0.000,     0.000,     0.000,   1,/* [                                ] */
    14,'1 ',1,   1,   1,    10.500,     5.300,     0.000,     0.000,     0.000,     0.000,   1,/* [                                ] */
    15,'1 ',1,   1,   1,    22.000,     5.000,     0.000,     0.000,     0.000,     0.000,   1,/* [                                ] */
    16,'1 ',1,   1,   1,    43.000,     3.000,     0.000,     0.000,     0.000,     0.000,   1,/* [                                ] */
    17,'1 ',1,   1,   1,    42.000,     8.000,     0.000,     0.000,     0.000,     0.000,   1,/* [                                ] */
    18,'1 ',1,   1,   1,    27.200,     9.800,     0.000,     0.000,     0.000,     0.000,   1,/* [                                ] */
    19,'1 ',1,   1,   1,     3.300,     0.600,     0.000,     0.000,     0.000,     0.000,   1,/* [                                ] */
    20,'1 ',1,   1,   1,     2.300,     1.000,     0.000,     0.000,     0.000,     0.000,   1,/* [                                ] */
    23,'1 ',1,   1,   1,     6.300,     2.100,     0.000,     0.000,     0.000,     0.000,   1,/* [                                ] */
    25,'1 ',1,   1,   1,     6.300,     3.200,     0.000,     0.000,     0.000,     0.000,   1,/* [                                ] */
    27,'1 ',1,   1,   1,     9.300,     0.500,     0.000,     0.000,     0.000,     0.000,   1,/* [                                ] */
    28,'1 ',1,   1,   1,     4.600,     2.300,     0.000,     0.000,     0.000,     0.000,   1,/* [                                ] */
    29,'1 ',1,   1,   1,    17.000,     2.600,     0.000,     0.000,     0.000,     0.000,   1,/* [                                ] */
    30,'1 ',1,   1,   1,     3.600,     1.800,     0.000,     0.000,     0.000,     0.000,   1,/* [                                ] */
    31,'1 ',1,   1,   1,     5.800,     2.900,     0.000,     0.000,     0.000,     0.000,   1,/* [                                ] */
    32,'1 ',1,   1,   1,     1.600,     0.800,     0.000,     0.000,     0.000,     0.000,   1,/* [                                ] */
    33,'1 ',1,   1,   1,     3.800,     1.900,     0.000,     0.000,     0.000,     0.000,   1,/* [                                ] */
    35,'1 ',1,   1,   1,     6.000,     3.000,     0.000,     0.000,     0.000,     0.000,   1,/* [                                ] */
    38,'1 ',1,   1,   1,    14.000,     7.000,     0.000,     0.000,     0.000,     0.000,   1,/* [                                ] */
    41,'1 ',1,   1,   1,     6.300,     3.000,     0.000,     0.000,     0.000,     0.000,   1,/* [                                ] */
    42,'1 ',1,   1,   1,     7.100,     4.400,     0.000,     0.000,     0.000,     0.000,   1,/* [                                ] */
    43,'1 ',1,   1,   1,     2.000,     1.000,     0.000,     0.000,     0.000,     0.000,   1,/* [                                ] */
    44,'1 ',1,   1,   1,    12.000,     1.800,     0.000,     0.000,     0.000,     0.000,   1,/* [                                ] */
    47,'1 ',1,   1,   1,    29.700,    11.600,     0.000,     0.000,     0.000,     0.000,   1,/* [                                ] */
    49,'1 ',1,   1,   1,    18.000,     8.500,     0.000,     0.000,     0.000,     0.000,   1,/* [                                ] */
    50,'1 ',1,   1,   1,    21.000,    10.500,     0.000,     0.000,     0.000,     0.000,   1,/* [                                ] */
    51,'1 ',1,   1,   1,    18.000,     5.300,     0.000,     0.000,     0.000,     0.000,   1,/* [                                ] */
    52,'1 ',1,   1,   1,     4.900,     2.200,     0.000,     0.000,     0.000,     0.000,   1,/* [                                ] */
    53,'1 ',1,   1,   1,    20.000,    10.000,     0.000,     0.000,     0.000,     0.000,   1,/* [                                ] */
    54,'1 ',1,   1,   1,     4.100,     1.400,     0.000,     0.000,     0.000,     0.000,   1,/* [                                ] */
    55,'1 ',1,   1,   1,     6.800,     3.400,     0.000,     0.000,     0.000,     0.000,   1,/* [                                ] */
    56,'1 ',1,   1,   1,     7.600,     2.200,     0.000,     0.000,     0.000,     0.000,   1,/* [                                ] */
    57,'1 ',1,   1,   1,     6.700,     2.000,     0.000,     0.000,     0.000,     0.000,   1,/* [                                ] */
0 / END OF LOAD DATA, BEGIN GENERATOR DATA
     1,'1 ',   478.66,   128.85,     0.00,     0.00,1.04000,     0,   100.00,      0.00000,      1.00000,      0.00000,      0.00000,1.00000,1,  100.0, 10000.00,-10000.00,   1,1.0000,,,,,,,,/* [                                ] */
     2,'1 ',     0.00,    -0.75,    50.00,   -17.00,1.01000,     0,   100.00,      0.00000,      1.00000,      0.00000,      0.00000,1.00000,1,  100.0, 10000.00,-10000.00,   1,1.0000,,,,,,,,/* [                                ] */
     3,'1 ',    40.00,    -0.90,    60.00,   -10.00,0.98500,     0,   100.00,      0.00000,      1.00000,      0.00000,      0.00000,1.00000,1,  100.0, 10000.00,-10000.00,   1,1.0000,,,,,,,,/* [                                ] */
     6,'1 ',     0.00,     0.87,    25.00,    -8.00,0.98000,     0,   100.00,      0.00000,      1.00000,      0.00000,      0.00000,1.00000,1,  100.0, 10000.00,-10000.00,   1,1.0000,,,,,,,,/* [                                ] */
     8,'1 ',   450.00,    62.10,   200.00,  -140.00,1.00500,     0,   100.00,      0.00000,      1.00000,      0.00000,      0.00000,1.00000,1,  100.0, 10000.00,-10000.00,   1,1.0000,,,,,,,,/* [                                ] */
     9,'1 ',     0.00,     2.29,     9.00,    -3.00,0.98000,     0,   100.00,      0.00000,      1.00000,      0.00000,      0.00000,1.00000,1,  100.0, 10000.00,-10000.00,   1,1.0000,,,,,,,,/* [                                ] */
    12,'1 ',   310.00,   128.63,   155.00,  -150.00,1.01500,     0,   100.00,      0.00000,      1.00000,      0.00000,      0.00000,1.00000,1,  100.0, 10000.00,-10000.00,   1,1.0000,,,,,,,,/* [                                ] */
 0 / END OF GENERATOR DATA, BEGIN BRANCH DATA
       1,       2,'1 ',    0.83000E-02,    0.28000E-01,    0.12900    ,    0.00,    0.00,    0.00,  0.00000,  0.00000,  0.00000,  0.00000,1,   0.00,   1,1.0000,,,,,,,,/* [                                ] */
       1,      15,'1 ',    0.17800E-01,    0.91000E-01,    0.98800E-01,    0.00,    0.00,    0.00,  0.00000,  0.00000,  0.00000,  0.00000,1,   0.00,   1,1.0000,,,,,,,,/* [                                ] */
       1,      16,'1 ',    0.45400E-01,    0.20600    ,    0.54600E-01,    0.00,    0.00,    0.00,  0.00000,  0.00000,  0.00000,  0.00000,1,   0.00,   1,1.0000,,,,,,,,/* [                                ] */
       1,      17,'1 ',    0.23800E-01,    0.10800    ,    0.28600E-01,    0.00,    0.00,    0.00,  0.00000,  0.00000,  0.00000,  0.00000,1,   0.00,   1,1.0000,,,,,,,,/* [                                ] */
       2,       3,'1 ',    0.29800E-01,    0.85000E-01,    0.81800E-01,    0.00,    0.00,    0.00,  0.00000,  0.00000,  0.00000,  0.00000,1,   0.00,   1,1.0000,,,,,,,,/* [                                ] */
       3,       4,'1 ',    0.11200E-01,    0.36600E-01,    0.38000E-01,    0.00,    0.00,    0.00,  0.00000,  0.00000,  0.00000,  0.00000,1,   0.00,   1,1.0000,,,,,,,,/* [                                ] */
       3,      15,'1 ',    0.16200E-01,    0.53000E-01,    0.54400E-01,    0.00,    0.00,    0.00,  0.00000,  0.00000,  0.00000,  0.00000,1,   0.00,   1,1.0000,,,,,,,,/* [                                ] */
       4,       5,'1 ',    0.62500E-01,    0.13200    ,    0.25800E-01,    0.00,    0.00,    0.00,  0.00000,  0.00000,  0.00000,  0.00000,1,   0.00,   1,1.0000,,,,,,,,/* [                                ] */
       4,       6,'1 ',    0.43000E-01,    0.14800    ,    0.34800E-01,    0.00,    0.00,    0.00,  0.00000,  0.00000,  0.00000,  0.00000,1,   0.00,   1,1.0000,,,,,,,,/* [                                ] */
       5,       6,'1 ',    0.30200E-01,    0.64100E-01,    0.12400E-01,    0.00,    0.00,    0.00,  0.00000,  0.00000,  0.00000,  0.00000,1,   0.00,   1,1.0000,,,,,,,,/* [                                ] */
       6,       7,'1 ',    0.20000E-01,    0.10200    ,    0.27600E-01,    0.00,    0.00,    0.00,  0.00000,  0.00000,  0.00000,  0.00000,1,   0.00,   1,1.0000,,,,,,,,/* [                                ] */
       6,       8,'1 ',    0.33900E-01,    0.17300    ,    0.47000E-01,    0.00,    0.00,    0.00,  0.00000,  0.00000,  0.00000,  0.00000,1,   0.00,   1,1.0000,,,,,,,,/* [                                ] */
       7,       8,'1 ',    0.13900E-01,    0.71200E-01,    0.19400E-01,    0.00,    0.00,    0.00,  0.00000,  0.00000,  0.00000,  0.00000,1,   0.00,   1,1.0000,,,,,,,,/* [                                ] */
       8,       9,'1 ',    0.99000E-02,    0.50500E-01,    0.54800E-01,    0.00,    0.00,    0.00,  0.00000,  0.00000,  0.00000,  0.00000,1,   0.00,   1,1.0000,,,,,,,,/* [                                ] */
       9,      10,'1 ',    0.36900E-01,    0.16790    ,    0.44000E-01,    0.00,    0.00,    0.00,  0.00000,  0.00000,  0.00000,  0.00000,1,   0.00,   1,1.0000,,,,,,,,/* [                                ] */
       9,      11,'1 ',    0.25800E-01,    0.84800E-01,    0.21800E-01,    0.00,    0.00,    0.00,  0.00000,  0.00000,  0.00000,  0.00000,1,   0.00,   1,1.0000,,,,,,,,/* [                                ] */
       9,      12,'1 ',    0.64800E-01,    0.29500    ,    0.77200E-01,    0.00,    0.00,    0.00,  0.00000,  0.00000,  0.00000,  0.00000,1,   0.00,   1,1.0000,,,,,,,,/* [                                ] */
       9,      13,'1 ',    0.48100E-01,    0.15800    ,    0.40600E-01,    0.00,    0.00,    0.00,  0.00000,  0.00000,  0.00000,  0.00000,1,   0.00,   1,1.0000,,,,,,,,/* [                                ] */
      10,      12,'1 ',    0.27700E-01,    0.12620    ,    0.32800E-01,    0.00,    0.00,    0.00,  0.00000,  0.00000,  0.00000,  0.00000,1,   0.00,   1,1.0000,,,,,,,,/* [                                ] */
      11,      13,'1 ',    0.22300E-01,    0.73200E-01,    0.18800E-01,    0.00,    0.00,    0.00,  0.00000,  0.00000,  0.00000,  0.00000,1,   0.00,   1,1.0000,,,,,,,,/* [                                ] */
      12,      13,'1 ',    0.17800E-01,    0.58000E-01,    0.60400E-01,    0.00,    0.00,    0.00,  0.00000,  0.00000,  0.00000,  0.00000,1,   0.00,   1,1.0000,,,,,,,,/* [                                ] */
      12,      16,'1 ',    0.18000E-01,    0.81300E-01,    0.21600E-01,    0.00,    0.00,    0.00,  0.00000,  0.00000,  0.00000,  0.00000,1,   0.00,   1,1.0000,,,,,,,,/* [                                ] */
      12,      17,'1 ',    0.39700E-01,    0.17900    ,    0.47600E-01,    0.00,    0.00,    0.00,  0.00000,  0.00000,  0.00000,  0.00000,1,   0.00,   1,1.0000,,,,,,,,/* [                                ] */
      13,      14,'1 ',    0.13200E-01,    0.43400E-01,    0.11000E-01,    0.00,    0.00,    0.00,  0.00000,  0.00000,  0.00000,  0.00000,1,   0.00,   1,1.0000,,,,,,,,/* [                                ] */
      13,      15,'1 ',    0.26900E-01,    0.86900E-01,    0.23000E-01,    0.00,    0.00,    0.00,  0.00000,  0.00000,  0.00000,  0.00000,1,   0.00,   1,1.0000,,,,,,,,/* [                                ] */
      14,      15,'1 ',    0.17100E-01,    0.54700E-01,    0.14800E-01,    0.00,    0.00,    0.00,  0.00000,  0.00000,  0.00000,  0.00000,1,   0.00,   1,1.0000,,,,,,,,/* [                                ] */
      18,      19,'1 ',    0.46100    ,    0.68500    ,     0.0000    ,    0.00,    0.00,    0.00,  0.00000,  0.00000,  0.00000,  0.00000,1,   0.00,   1,1.0000,,,,,,,,/* [                                ] */
      19,      20,'1 ',    0.28300    ,    0.43400    ,     0.0000    ,    0.00,    0.00,    0.00,  0.00000,  0.00000,  0.00000,  0.00000,1,   0.00,   1,1.0000,,,,,,,,/* [                                ] */
      21,      22,'1 ',    0.73600E-01,    0.11700    ,     0.0000    ,    0.00,    0.00,    0.00,  0.00000,  0.00000,  0.00000,  0.00000,1,   0.00,   1,1.0000,,,,,,,,/* [                                ] */
      22,      23,'1 ',    0.99000E-02,    0.15200E-01,     0.0000    ,    0.00,    0.00,    0.00,  0.00000,  0.00000,  0.00000,  0.00000,1,   0.00,   1,1.0000,,,,,,,,/* [                                ] */
      22,      38,'1 ',    0.19200E-01,    0.29500E-01,     0.0000    ,    0.00,    0.00,    0.00,  0.00000,  0.00000,  0.00000,  0.00000,1,   0.00,   1,1.0000,,,,,,,,/* [                                ] */
      23,      24,'1 ',    0.16600    ,    0.25600    ,    0.84000E-02,    0.00,    0.00,    0.00,  0.00000,  0.00000,  0.00000,  0.00000,1,   0.00,   1,1.0000,,,,,,,,/* [                                ] */
      24,      25,'1 ',     0.0000    ,     1.2300    ,     0.0000    ,    0.00,    0.00,    0.00,  0.00000,  0.00000,  0.00000,  0.00000,1,   0.00,   1,1.0000,,,,,,,,/* [                                ] */
      24,      25,'2 ',     0.0000    ,     1.1820    ,     0.0000    ,    0.00,    0.00,    0.00,  0.00000,  0.00000,  0.00000,  0.00000,1,   0.00,   1,1.0000,,,,,,,,/* [                                ] */
      25,      30,'1 ',    0.13500    ,    0.20200    ,     0.0000    ,    0.00,    0.00,    0.00,  0.00000,  0.00000,  0.00000,  0.00000,1,   0.00,   1,1.0000,,,,,,,,/* [                                ] */
      26,      27,'1 ',    0.16500    ,    0.25400    ,     0.0000    ,    0.00,    0.00,    0.00,  0.00000,  0.00000,  0.00000,  0.00000,1,   0.00,   1,1.0000,,,,,,,,/* [                                ] */
      27,      28,'1 ',    0.61800E-01,    0.95400E-01,     0.0000    ,    0.00,    0.00,    0.00,  0.00000,  0.00000,  0.00000,  0.00000,1,   0.00,   1,1.0000,,,,,,,,/* [                                ] */
      28,      29,'1 ',    0.41800E-01,    0.58700E-01,     0.0000    ,    0.00,    0.00,    0.00,  0.00000,  0.00000,  0.00000,  0.00000,1,   0.00,   1,1.0000,,,,,,,,/* [                                ] */
      29,      52,'1 ',    0.14420    ,    0.18700    ,     0.0000    ,    0.00,    0.00,    0.00,  0.00000,  0.00000,  0.00000,  0.00000,1,   0.00,   1,1.0000,,,,,,,,/* [                                ] */
      30,      31,'1 ',    0.32600    ,    0.49700    ,     0.0000    ,    0.00,    0.00,    0.00,  0.00000,  0.00000,  0.00000,  0.00000,1,   0.00,   1,1.0000,,,,,,,,/* [                                ] */
      31,      32,'1 ',    0.50700    ,    0.75500    ,     0.0000    ,    0.00,    0.00,    0.00,  0.00000,  0.00000,  0.00000,  0.00000,1,   0.00,   1,1.0000,,,,,,,,/* [                                ] */
      32,      33,'1 ',    0.39200E-01,    0.36000E-01,     0.0000    ,    0.00,    0.00,    0.00,  0.00000,  0.00000,  0.00000,  0.00000,1,   0.00,   1,1.0000,,,,,,,,/* [                                ] */
      34,      35,'1 ',    0.52000E-01,    0.78000E-01,    0.32000E-02,    0.00,    0.00,    0.00,  0.00000,  0.00000,  0.00000,  0.00000,1,   0.00,   1,1.0000,,,,,,,,/* [                                ] */
      35,      36,'1 ',    0.43000E-01,    0.53700E-01,    0.16000E-02,    0.00,    0.00,    0.00,  0.00000,  0.00000,  0.00000,  0.00000,1,   0.00,   1,1.0000,,,,,,,,/* [                                ] */
      36,      37,'1 ',    0.29000E-01,    0.36600E-01,     0.0000    ,    0.00,    0.00,    0.00,  0.00000,  0.00000,  0.00000,  0.00000,1,   0.00,   1,1.0000,,,,,,,,/* [                                ] */
      36,      40,'1 ',    0.30000E-01,    0.46600E-01,     0.0000    ,    0.00,    0.00,    0.00,  0.00000,  0.00000,  0.00000,  0.00000,1,   0.00,   1,1.0000,,,,,,,,/* [                                ] */
      37,      38,'1 ',    0.65100E-01,    0.10090    ,    0.20000E-02,    0.00,    0.00,    0.00,  0.00000,  0.00000,  0.00000,  0.00000,1,   0.00,   1,1.0000,,,,,,,,/* [                                ] */
      37,      39,'1 ',    0.23900E-01,    0.37900E-01,     0.0000    ,    0.00,    0.00,    0.00,  0.00000,  0.00000,  0.00000,  0.00000,1,   0.00,   1,1.0000,,,,,,,,/* [                                ] */
      38,      44,'1 ',    0.28900E-01,    0.58500E-01,    0.20000E-02,    0.00,    0.00,    0.00,  0.00000,  0.00000,  0.00000,  0.00000,1,   0.00,   1,1.0000,,,,,,,,/* [                                ] */
      38,      48,'1 ',    0.31200E-01,    0.48200E-01,     0.0000    ,    0.00,    0.00,    0.00,  0.00000,  0.00000,  0.00000,  0.00000,1,   0.00,   1,1.0000,,,,,,,,/* [                                ] */
      38,      49,'1 ',    0.11500    ,    0.17700    ,    0.30000E-02,    0.00,    0.00,    0.00,  0.00000,  0.00000,  0.00000,  0.00000,1,   0.00,   1,1.0000,,,,,,,,/* [                                ] */
      41,      42,'1 ',    0.20700    ,    0.35200    ,     0.0000    ,    0.00,    0.00,    0.00,  0.00000,  0.00000,  0.00000,  0.00000,1,   0.00,   1,1.0000,,,,,,,,/* [                                ] */
      41,      43,'1 ',     0.0000    ,    0.41200    ,     0.0000    ,    0.00,    0.00,    0.00,  0.00000,  0.00000,  0.00000,  0.00000,1,   0.00,   1,1.0000,,,,,,,,/* [                                ] */
      56,      41,'1 ',    0.55300    ,    0.54900    ,     0.0000    ,    0.00,    0.00,    0.00,  0.00000,  0.00000,  0.00000,  0.00000,1,   0.00,   1,1.0000,,,,,,,,/* [                                ] */
      56,      42,'1 ',    0.21250    ,    0.35400    ,     0.0000    ,    0.00,    0.00,    0.00,  0.00000,  0.00000,  0.00000,  0.00000,1,   0.00,   1,1.0000,,,,,,,,/* [                                ] */
      44,      45,'1 ',    0.62400E-01,    0.12420    ,    0.40000E-02,    0.00,    0.00,    0.00,  0.00000,  0.00000,  0.00000,  0.00000,1,   0.00,   1,1.0000,,,,,,,,/* [                                ] */
      46,      47,'1 ',    0.23000E-01,    0.68000E-01,    0.32000E-02,    0.00,    0.00,    0.00,  0.00000,  0.00000,  0.00000,  0.00000,1,   0.00,   1,1.0000,,,,,,,,/* [                                ] */
      47,      48,'1 ',    0.18200E-01,    0.23300E-01,     0.0000    ,    0.00,    0.00,    0.00,  0.00000,  0.00000,  0.00000,  0.00000,1,   0.00,   1,1.0000,,,,,,,,/* [                                ] */
      48,      49,'1 ',    0.83400E-01,    0.12900    ,    0.48000E-02,    0.00,    0.00,    0.00,  0.00000,  0.00000,  0.00000,  0.00000,1,   0.00,   1,1.0000,,,,,,,,/* [                                ] */
      49,      50,'1 ',    0.80100E-01,    0.12800    ,     0.0000    ,    0.00,    0.00,    0.00,  0.00000,  0.00000,  0.00000,  0.00000,1,   0.00,   1,1.0000,,,,,,,,/* [                                ] */
      50,      51,'1 ',    0.13860    ,    0.22000    ,     0.0000    ,    0.00,    0.00,    0.00,  0.00000,  0.00000,  0.00000,  0.00000,1,   0.00,   1,1.0000,,,,,,,,/* [                                ] */
      52,      53,'1 ',    0.76200E-01,    0.98400E-01,     0.0000    ,    0.00,    0.00,    0.00,  0.00000,  0.00000,  0.00000,  0.00000,1,   0.00,   1,1.0000,,,,,,,,/* [                                ] */
      53,      54,'1 ',    0.18780    ,    0.23200    ,     0.0000    ,    0.00,    0.00,    0.00,  0.00000,  0.00000,  0.00000,  0.00000,1,   0.00,   1,1.0000,,,,,,,,/* [                                ] */
      54,      55,'1 ',    0.17320    ,    0.22650    ,     0.0000    ,    0.00,    0.00,    0.00,  0.00000,  0.00000,  0.00000,  0.00000,1,   0.00,   1,1.0000,,,,,,,,/* [                                ] */
      57,      56,'1 ',    0.17400    ,    0.26000    ,     0.0000    ,    0.00,    0.00,    0.00,  0.00000,  0.00000,  0.00000,  0.00000,1,   0.00,   1,1.0000,,,,,,,,/* [                                ] */
0 / END OF BRANCH DATA, BEGIN TRANSFORMER DATA
       4,      18, 0,'1 ',1,1,1,   0.00000,   0.00000, 2,'', 1,   1,1.0000,,,,,,,
   0.00000,   0.43000
0.97800, 0,   0.000,    0.00,    0.00,    0.00,-1,       0,     1.1000    ,    0.90000    ,     1.5000    ,    0.50000    ,159,  0, 0., 0.
 1.00000, 0.,/* [                                ] */
       4,      18, 0,'2 ',1,1,1,   0.00000,   0.00000, 2,'', 1,   1,1.0000,,,,,,,
   0.00000,   0.55500
0.97000, 0,   0.000,    0.00,    0.00,    0.00,-1,       0,     1.1000    ,    0.90000    ,     1.5000    ,    0.50000    ,159,  0, 0., 0.
 1.00000, 0.,/* [                                ] */
       7,      29, 0,'1 ',1,1,1,   0.00000,   0.00000, 2,'', 1,   1,1.0000,,,,,,,
   0.00000,   0.06480
0.96700, 0,   0.000,    0.00,    0.00,    0.00,-1,       0,     1.1000    ,    0.90000    ,     1.5000    ,    0.50000    ,159,  0, 0., 0.
 1.00000, 0.,/* [                                ] */
       9,      55, 0,'1 ',1,1,1,   0.00000,   0.00000, 2,'', 1,   1,1.0000,,,,,,,
   0.00000,   0.12050
0.94000, 0,   0.000,    0.00,    0.00,    0.00,-1,       0,     1.1000    ,    0.90000    ,     1.5000    ,    0.50000    ,159,  0, 0., 0.
 1.00000, 0.,/* [                                ] */
      10,      51, 0,'1 ',1,1,1,   0.00000,   0.00000, 2,'', 1,   1,1.0000,,,,,,,
   0.00000,   0.07120
0.93000, 0,   0.000,    0.00,    0.00,    0.00,-1,       0,     1.1000    ,    0.90000    ,     1.5000    ,    0.50000    ,159,  0, 0., 0.
 1.00000, 0.,/* [                                ] */
      11,      41, 0,'1 ',1,1,1,   0.00000,   0.00000, 2,'', 1,   1,1.0000,,,,,,,
   0.00000,   0.74900
0.95500, 0,   0.000,    0.00,    0.00,    0.00,-1,       0,     1.1000    ,    0.90000    ,     1.5000    ,    0.50000    ,159,  0, 0., 0.
 1.00000, 0.,/* [                                ] */
      11,      43, 0,'1 ',1,1,1,   0.00000,   0.00000, 2,'', 1,   1,1.0000,,,,,,,
   0.00000,   0.15300
0.95800, 0,   0.000,    0.00,    0.00,    0.00,-1,       0,     1.1000    ,    0.90000    ,     1.5000    ,    0.50000    ,159,  0, 0., 0.
 1.00000, 0.,/* [                                ] */
      13,      49, 0,'1 ',1,1,1,   0.00000,   0.00000, 2,'', 1,   1,1.0000,,,,,,,
   0.00000,   0.19100
0.89500, 0,   0.000,    0.00,    0.00,    0.00,-1,       0,     1.1000    ,    0.90000    ,     1.5000    ,    0.50000    ,159,  0, 0., 0.
 1.00000, 0.,/* [                                ] */
      14,      46, 0,'1 ',1,1,1,   0.00000,   0.00000, 2,'', 1,   1,1.0000,,,,,,,
   0.00000,   0.07350
0.90000, 0,   0.000,    0.00,    0.00,    0.00,-1,       0,     1.1000    ,    0.90000    ,     1.5000    ,    0.50000    ,159,  0, 0., 0.
 1.00000, 0.,/* [                                ] */
      15,      45, 0,'1 ',1,1,1,   0.00000,   0.00000, 2,'', 1,   1,1.0000,,,,,,,
   0.00000,   0.10420
0.95500, 0,   0.000,    0.00,    0.00,    0.00,-1,       0,     1.1000    ,    0.90000    ,     1.5000    ,    0.50000    ,159,  0, 0., 0.
 1.00000, 0.,/* [                                ] */
      21,      20, 0,'1 ',1,1,1,   0.00000,   0.00000, 2,'', 1,   1,1.0000,,,,,,,
   0.00000,   0.77670
1.04300, 0,   0.000,    0.00,    0.00,    0.00,-1,       0,     1.1000    ,    0.90000    ,     1.5000    ,    0.50000    ,159,  0, 0., 0.
 1.00000, 0.,/* [                                ] */
      24,      26, 0,'1 ',1,1,1,   0.00000,   0.00000, 2,'', 1,   1,1.0000,,,,,,,
   0.00000,   0.04730
1.04300, 0,   0.000,    0.00,    0.00,    0.00,-1,       0,     1.1000    ,    0.90000    ,     1.5000    ,    0.50000    ,159,  0, 0., 0.
 1.00000, 0.,/* [                                ] */
      34,      32, 0,'1 ',1,1,1,   0.00000,   0.00000, 2,'', 1,   1,1.0000,,,,,,,
   0.00000,   0.95300
0.97500, 0,   0.000,    0.00,    0.00,    0.00,-1,       0,     1.1000    ,    0.90000    ,     1.5000    ,    0.50000    ,159,  0, 0., 0.
 1.00000, 0.,/* [                                ] */
      39,      57, 0,'1 ',1,1,1,   0.00000,   0.00000, 2,'', 1,   1,1.0000,,,,,,,
   0.00000,   1.35500
0.98000, 0,   0.000,    0.00,    0.00,    0.00,-1,       0,     1.1000    ,    0.90000    ,     1.5000    ,    0.50000    ,159,  0, 0., 0.
 1.00000, 0.,/* [                                ] */
      40,      56, 0,'1 ',1,1,1,   0.00000,   0.00000, 2,'', 1,   1,1.0000,,,,,,,
   0.00000,   1.19500
0.95800, 0,   0.000,    0.00,    0.00,    0.00,-1,       0,     1.1000    ,    0.90000    ,     1.5000    ,    0.50000    ,159,  0, 0., 0.
 1.00000, 0.,/* [                                ] */
0 / END OF TRANSFORMER DATA, BEGIN AREA DATA
    1,     0,     0.00,     1.00,'1           '
0 / END OF AREA DATA, BEGIN TWO-TERMINAL DC DATA
0 / END OF TWO-TERMINAL DC DATA, BEGIN VSC DC LINE DATA
0 / END OF VSC DC LINE DATA, BEGIN SWITCHED SHUNT DATA
 0 / END SWITCHED SHUNT DATA, BEGIN IMPEDANCE CORRECTION TABLE DATA
0 / END OF IMPEDANCE CORRECTION TABLE DATA, BEGIN MULTI-TERMINAL DC DATA
0 / END OF MULTI-TERMINAL DC DATA, BEGIN MULTI-SECTION LINE DATA
0 / END OF MULTI-SECTION LINE DATA, BEGIN ZONE DATA
    1,'IEEE 57     '
0 / END OF ZONE DATA, BEGIN INTER-AREA TRANSFER DATA
0 / END OF INTER-AREA TRANSFER DATA, BEGIN OWNER DATA
   1, '1           '
0 / END OF OWNER DATA, BEGIN FACTS DEVICE DATA
0 / END OF FACTS DATA
 0 /
